56

C     0.00000   1.23000   0.00000
C     0.00000   3.69000   0.00000
C     0.00000   6.15000   0.00000
C     0.71000   0.00000   0.00000
C     2.13000   0.00000   0.00000
C     0.71000   2.46000   0.00000
C     2.13000   2.46000   0.00000
C     0.71000   4.92000   0.00000
C     2.13000   4.92000   0.00000
C     0.71000   7.38000   0.00000
C     2.13000   7.38000   0.00000
C     2.84000   1.23000   0.00000
C     2.84000   3.69000   0.00000
C     2.84000   6.15000   0.00000
C     4.26000   1.23000   0.00000
C     4.26000   3.69000   0.00000
C     4.26000   6.15000   0.00000
C     4.97000   0.00000   0.00000
C     6.39000   0.00000   0.00000
C     4.97000   2.46000   0.00000
C     6.39000   2.46000   0.00000
C     4.97000   4.92000   0.00000
C     6.39000   4.92000   0.00000
C     4.97000   7.38000   0.00000
C     6.39000   7.38000   0.00000
C     7.10000   1.23000   0.00000
C     7.10000   3.69000   0.00000
C     7.10000   6.15000   0.00000
C     8.52000   1.23000   0.00000
C     8.52000   3.69000   0.00000
C     8.52000   6.15000   0.00000
C     9.23000   0.00000   0.00000
C    10.65000   0.00000   0.00000
C     9.23000   2.46000   0.00000
C    10.65000   2.46000   0.00000
C     9.23000   4.92000   0.00000
C    10.65000   4.92000   0.00000
C     9.23000   7.38000   0.00000
C    10.65000   7.38000   0.00000
C    11.36000   1.23000   0.00000
C    11.36000   3.69000   0.00000
C    11.36000   6.15000   0.00000
C    12.78000   1.23000   0.00000
C    12.78000   3.69000   0.00000
C    12.78000   6.15000   0.00000
C    13.49000   0.00000   0.00000
C    14.91000   0.00000   0.00000
C    13.49000   2.46000   0.00000
C    14.91000   2.46000   0.00000
C    13.49000   4.92000   0.00000
C    14.91000   4.92000   0.00000
C    13.49000   7.38000   0.00000
C    14.91000   7.38000   0.00000
C    15.62000   1.23000   0.00000
C    15.62000   3.69000   0.00000
C    15.62000   6.15000   0.00000
