80

C     0.00000   1.22976   0.00000
C     0.00000   3.68927   0.00000
C     0.71000   0.00000   0.00000
C     2.13000   0.00000   0.00000
C     0.71000   2.45951   0.00000
C     2.13000   2.45951   0.00000
C     0.71000   4.91902   0.00000
C     2.13000   4.91902   0.00000
C     2.84000   1.22976   0.00000
C     2.84000   3.68927   0.00000
C     4.26000   1.22976   0.00000
C     4.26000   3.68927   0.00000
C     4.97000   0.00000   0.00000
C     6.39000   0.00000   0.00000
C     4.97000   2.45951   0.00000
C     6.39000   2.45951   0.00000
C     4.97000   4.91902   0.00000
C     6.39000   4.91902   0.00000
C     7.10000   1.22976   0.00000
C     7.10000   3.68927   0.00000
C     8.52000   1.22976   0.00000
C     8.52000   3.68927   0.00000
C     9.23000   0.00000   0.00000
C    10.65000   0.00000   0.00000
C     9.23000   2.45951   0.00000
C    10.65000   2.45951   0.00000
C     9.23000   4.91902   0.00000
C    10.65000   4.91902   0.00000
C    11.36000   1.22976   0.00000
C    11.36000   3.68927   0.00000
C    12.78000   1.22976   0.00000
C    12.78000   3.68927   0.00000
C    13.49000   0.00000   0.00000
C    14.91000   0.00000   0.00000
C    13.49000   2.45951   0.00000
C    14.91000   2.45951   0.00000
C    13.49000   4.91902   0.00000
C    14.91000   4.91902   0.00000
C    15.62000   1.22976   0.00000
C    15.62000   3.68927   0.00000
C    17.04000   1.22976   0.00000
C    17.04000   3.68927   0.00000
C    17.75000   0.00000   0.00000
C    19.17000   0.00000   0.00000
C    17.75000   2.45951   0.00000
C    19.17000   2.45951   0.00000
C    17.75000   4.91902   0.00000
C    19.17000   4.91902   0.00000
C    19.88000   1.22976   0.00000
C    19.88000   3.68927   0.00000
C    21.30000   1.22976   0.00000
C    21.30000   3.68927   0.00000
C    22.01000   0.00000   0.00000
C    23.43000   0.00000   0.00000
C    22.01000   2.45951   0.00000
C    23.43000   2.45951   0.00000
C    22.01000   4.91902   0.00000
C    23.43000   4.91902   0.00000
C    24.14000   1.22976   0.00000
C    24.14000   3.68927   0.00000
C    25.56000   1.22976   0.00000
C    25.56000   3.68927   0.00000
C    26.27000   0.00000   0.00000
C    27.69000   0.00000   0.00000
C    26.27000   2.45951   0.00000
C    27.69000   2.45951   0.00000
C    26.27000   4.91902   0.00000
C    27.69000   4.91902   0.00000
C    28.40000   1.22976   0.00000
C    28.40000   3.68927   0.00000
C    29.82000   1.22976   0.00000
C    29.82000   3.68927   0.00000
C    30.53000   0.00000   0.00000
C    31.95000   0.00000   0.00000
C    30.53000   2.45951   0.00000
C    31.95000   2.45951   0.00000
C    30.53000   4.91902   0.00000
C    31.95000   4.91902   0.00000
C    32.66000   1.22976   0.00000
C    32.66000   3.68927   0.00000
