12

C     0.00000   1.23000   0.00000
C     0.00000   3.69000   0.00000
C     0.00000   6.15000   0.00000
C     0.71000   0.00000   0.00000
C     2.13000   0.00000   0.00000
C     0.71000   2.46000   0.00000
C     2.13000   2.46000   0.00000
C     0.71000   4.92000   0.00000
C     2.13000   4.92000   0.00000
C     2.84000   1.23000   0.00000
C     2.84000   3.69000   0.00000
C     2.84000   6.15000   0.00000
