18

C     0.00000   0.00000   0.00000
C     1.42000   0.00000   0.00000
C     2.13000   1.23000   0.00000
C     3.55000   1.23000   0.00000
C     2.13000  -1.23000   0.00000
C     3.55000  -1.23000   0.00000
C     4.26000   2.46000   0.00000
C     5.68000   2.46000   0.00000
C     4.26000   0.00000   0.00000
C     5.68000   0.00000   0.00000
C     4.26000  -2.46000   0.00000
C     5.68000  -2.46000   0.00000
C     6.39000   1.23000   0.00000
C     7.81000   1.23000   0.00000
C     6.39000  -1.23000   0.00000
C     7.81000  -1.23000   0.00000
C     8.52000   0.00000   0.00000
C     9.94000   0.00000   0.00000
