288

C	   2.8400 	   0.0000 	   0.0000 	
C	   3.5500 	  -1.2298 	   0.0000 	
C	   4.9700 	  -1.2298 	   0.0000 	
C	   5.6800 	   0.0000 	   0.0000 	
C	   4.9700 	   1.2298 	   0.0000 	
C	   3.5500 	   1.2298 	   0.0000 	
C	   7.1000 	   0.0000 	   0.0000 	
C	   7.8100 	   1.2298 	   0.0000 	
C	   7.1000 	   2.4594 	   0.0000 	
C	   5.6800 	   2.4594 	   0.0000 	
C	   5.6800 	  -2.4594 	   0.0000 	
C	   7.1000 	  -2.4594 	   0.0000 	
C	   7.8100 	  -1.2298 	   0.0000 	
C	   9.2300 	  -1.2298 	   0.0000 	
C	   9.9400 	   0.0000 	   0.0000 	
C	   9.2300 	   1.2298 	   0.0000 	
C	   9.9400 	   2.4594 	   0.0000 	
C	   9.2300 	   3.6892 	   0.0000 	
C	   7.8100 	   3.6892 	   0.0000 	
C	  11.3600 	   0.0000 	   0.0000 	
C	  12.0700 	   1.2298 	   0.0000 	
C	  11.3600 	   2.4594 	   0.0000 	
C	   9.9400 	  -2.4594 	   0.0000 	
C	  11.3600 	  -2.4594 	   0.0000 	
C	  12.0700 	  -1.2298 	   0.0000 	
C	   7.8100 	  -3.6892 	   0.0000 	
C	   9.2300 	  -3.6892 	   0.0000 	
C	  13.4900 	  -1.2298 	   0.0000 	
C	  14.2000 	   0.0000 	   0.0000 	
C	  13.4900 	   1.2298 	   0.0000 	
C	   7.1000 	   4.9191 	   0.0000 	
C	   5.6800 	   4.9191 	   0.0000 	
C	   4.9700 	   3.6892 	   0.0000 	
C	   3.5500 	   3.6892 	   0.0000 	
C	   2.8400 	   2.4594 	   0.0000 	
C	   1.4200 	   2.4594 	   0.0000 	
C	   0.7100 	   1.2298 	   0.0000 	
C	   1.4200 	   0.0000 	   0.0000 	
C	   4.9700 	  -3.6892 	   0.0000 	
C	   5.6800 	  -4.9191 	   0.0000 	
C	   7.1000 	  -4.9191 	   0.0000 	
C	   2.8400 	  -2.4594 	   0.0000 	
C	   3.5500 	  -3.6892 	   0.0000 	
C	   0.7100 	  -1.2298 	   0.0000 	
C	   1.4200 	  -2.4594 	   0.0000 	
C	  -0.7100 	   1.2298 	   0.0000 	
C	  -1.4200 	   0.0000 	   0.0000 	
C	  -0.7100 	  -1.2298 	   0.0000 	
C	   4.9700 	   6.1489 	   0.0000 	
C	   3.5500 	   6.1489 	   0.0000 	
C	   2.8400 	   4.9191 	   0.0000 	
C	   1.4200 	   4.9191 	   0.0000 	
C	   0.7100 	   3.6892 	   0.0000 	
C	  -0.7100 	   3.6892 	   0.0000 	
C	  -1.4200 	   2.4594 	   0.0000 	
C	  -2.8400 	   2.4594 	   0.0000 	
C	  -3.5500 	   1.2298 	   0.0000 	
C	  -2.8400 	   0.0000 	   0.0000 	
C	  -3.5500 	  -1.2298 	   0.0000 	
C	  -2.8400 	  -2.4594 	   0.0000 	
C	  -1.4200 	  -2.4594 	   0.0000 	
C	  -0.7100 	  -3.6892 	   0.0000 	
C	   0.7100 	  -3.6892 	   0.0000 	
C	   1.4200 	  -4.9191 	   0.0000 	
C	   2.8400 	  -4.9191 	   0.0000 	
C	   3.5500 	  -6.1489 	   0.0000 	
C	   4.9700 	  -6.1489 	   0.0000 	
C	  -4.9700 	   1.2298 	   0.0000 	
C	  -5.6800 	   0.0000 	   0.0000 	
C	  -4.9700 	  -1.2298 	   0.0000 	
C	   0.7100 	  -6.1489 	   0.0000 	
C	   1.4200 	  -7.3785 	   0.0000 	
C	   2.8400 	  -7.3785 	   0.0000 	
C	  -1.4200 	  -4.9191 	   0.0000 	
C	  -0.7100 	  -6.1489 	   0.0000 	
C	  -3.5500 	  -3.6892 	   0.0000 	
C	  -2.8400 	  -4.9191 	   0.0000 	
C	  -5.6800 	  -2.4594 	   0.0000 	
C	  -4.9700 	  -3.6892 	   0.0000 	
C	  -7.1000 	   0.0000 	   0.0000 	
C	  -7.8100 	  -1.2298 	   0.0000 	
C	  -7.1000 	  -2.4594 	   0.0000 	
C	  -5.6800 	   2.4594 	   0.0000 	
C	  -7.1000 	   2.4594 	   0.0000 	
C	  -7.8100 	   1.2298 	   0.0000 	
C	  -3.5500 	   3.6892 	   0.0000 	
C	  -4.9700 	   3.6892 	   0.0000 	
C	  -1.4200 	   4.9191 	   0.0000 	
C	  -2.8400 	   4.9191 	   0.0000 	
C	   0.7100 	   6.1489 	   0.0000 	
C	  -0.7100 	   6.1489 	   0.0000 	
C	   2.8400 	   7.3785 	   0.0000 	
C	   1.4200 	   7.3785 	   0.0000 	
C	  -9.2300 	   1.2298 	   0.0000 	
C	  -9.9400 	   0.0000 	   0.0000 	
C	  -9.2300 	  -1.2298 	   0.0000 	
C	  -1.4200 	  -7.3785 	   0.0000 	
C	  -0.7100 	  -8.6083 	   0.0000 	
C	   0.7100 	  -8.6083 	   0.0000 	
C	  -3.5500 	  -6.1489 	   0.0000 	
C	  -2.8400 	  -7.3785 	   0.0000 	
C	  -5.6800 	  -4.9191 	   0.0000 	
C	  -4.9700 	  -6.1489 	   0.0000 	
C	  -7.8100 	  -3.6892 	   0.0000 	
C	  -7.1000 	  -4.9191 	   0.0000 	
C	  -9.9400 	  -2.4594 	   0.0000 	
C	  -9.2300 	  -3.6892 	   0.0000 	
C	 -11.3600 	   0.0000 	   0.0000 	
C	 -12.0700 	  -1.2298 	   0.0000 	
C	 -11.3600 	  -2.4594 	   0.0000 	
C	  -9.9400 	   2.4594 	   0.0000 	
C	 -11.3600 	   2.4594 	   0.0000 	
C	 -12.0700 	   1.2298 	   0.0000 	
C	 -13.4900 	   1.2298 	   0.0000 	
C	 -14.2000 	   0.0000 	   0.0000 	
C	 -13.4900 	  -1.2298 	   0.0000 	
C	  -7.8100 	   3.6892 	   0.0000 	
C	  -9.2300 	   3.6892 	   0.0000 	
C	  -5.6800 	   4.9191 	   0.0000 	
C	  -7.1000 	   4.9191 	   0.0000 	
C	  -3.5500 	   6.1489 	   0.0000 	
C	  -4.9700 	   6.1489 	   0.0000 	
C	  -1.4200 	   7.3785 	   0.0000 	
C	  -2.8400 	   7.3785 	   0.0000 	
C	   0.7100 	   8.6083 	   0.0000 	
C	  -0.7100 	   8.6083 	   0.0000 	
C	 -14.2000 	   2.4594 	   0.0000 	
C	 -15.6200 	   2.4594 	   0.0000 	
C	 -16.3300 	   1.2298 	   0.0000 	
C	 -15.6200 	   0.0000 	   0.0000 	
C	 -16.3300 	  -1.2298 	   0.0000 	
C	 -15.6200 	  -2.4594 	   0.0000 	
C	 -14.2000 	  -2.4594 	   0.0000 	
C	 -17.7500 	   1.2298 	   0.0000 	
C	 -18.4600 	   0.0000 	   0.0000 	
C	 -17.7500 	  -1.2298 	   0.0000 	
C	 -13.4900 	  -3.6892 	   0.0000 	
C	 -12.0700 	  -3.6892 	   0.0000 	
C	 -11.3600 	  -4.9191 	   0.0000 	
C	  -9.9400 	  -4.9191 	   0.0000 	
C	  -9.2300 	  -6.1489 	   0.0000 	
C	  -7.8100 	  -6.1489 	   0.0000 	
C	  -7.1000 	  -7.3785 	   0.0000 	
C	  -5.6800 	  -7.3785 	   0.0000 	
C	  -4.9700 	  -8.6083 	   0.0000 	
C	  -3.5500 	  -8.6083 	   0.0000 	
C	  -2.8400 	  -9.8381 	   0.0000 	
C	  -1.4200 	  -9.8381 	   0.0000 	
C	 -12.0700 	   3.6892 	   0.0000 	
C	 -13.4900 	   3.6892 	   0.0000 	
C	  -9.9400 	   4.9191 	   0.0000 	
C	 -11.3600 	   4.9191 	   0.0000 	
C	  -7.8100 	   6.1489 	   0.0000 	
C	  -9.2300 	   6.1489 	   0.0000 	
C	  -5.6800 	   7.3785 	   0.0000 	
C	  -7.1000 	   7.3785 	   0.0000 	
C	  -3.5500 	   8.6083 	   0.0000 	
C	  -4.9700 	   8.6083 	   0.0000 	
C	  -1.4200 	   9.8381 	   0.0000 	
C	  -2.8400 	   9.8381 	   0.0000 	
C	 -18.4600 	   2.4594 	   0.0000 	
C	 -19.8800 	   2.4594 	   0.0000 	
C	 -20.5900 	   1.2298 	   0.0000 	
C	 -19.8800 	   0.0000 	   0.0000 	
C	 -20.5900 	  -1.2298 	   0.0000 	
C	 -19.8800 	  -2.4594 	   0.0000 	
C	 -18.4600 	  -2.4594 	   0.0000 	
C	 -22.0100 	   1.2298 	   0.0000 	
C	 -22.7200 	   0.0000 	   0.0000 	
C	 -22.0100 	  -1.2298 	   0.0000 	
C	 -17.7500 	  -3.6892 	   0.0000 	
C	 -16.3300 	  -3.6892 	   0.0000 	
C	 -15.6200 	  -4.9191 	   0.0000 	
C	 -14.2000 	  -4.9191 	   0.0000 	
C	 -13.4900 	  -6.1489 	   0.0000 	
C	 -12.0700 	  -6.1489 	   0.0000 	
C	 -11.3600 	  -7.3785 	   0.0000 	
C	  -9.9400 	  -7.3785 	   0.0000 	
C	  -9.2300 	  -8.6083 	   0.0000 	
C	  -7.8100 	  -8.6083 	   0.0000 	
C	  -7.1000 	  -9.8381 	   0.0000 	
C	  -5.6800 	  -9.8381 	   0.0000 	
C	  -4.9700 	 -11.0677 	   0.0000 	
C	  -3.5500 	 -11.0677 	   0.0000 	
C	 -16.3300 	   3.6892 	   0.0000 	
C	 -17.7500 	   3.6892 	   0.0000 	
C	 -14.2000 	   4.9191 	   0.0000 	
C	 -15.6200 	   4.9191 	   0.0000 	
C	 -12.0700 	   6.1489 	   0.0000 	
C	 -13.4900 	   6.1489 	   0.0000 	
C	  -9.9400 	   7.3785 	   0.0000 	
C	 -11.3600 	   7.3785 	   0.0000 	
C	  -7.8100 	   8.6083 	   0.0000 	
C	  -9.2300 	   8.6083 	   0.0000 	
C	  -5.6800 	   9.8381 	   0.0000 	
C	  -7.1000 	   9.8381 	   0.0000 	
C	  -3.5500 	  11.0677 	   0.0000 	
C	  -4.9700 	  11.0677 	   0.0000 	
C	 -24.1400 	   0.0000 	   0.0000 	
C	  -2.8400 	 -12.2975 	   0.0000 	
C	  -1.4200 	 -12.2975 	   0.0000 	
C	  -0.7100 	 -11.0677 	   0.0000 	
C	   0.7100 	 -11.0677 	   0.0000 	
C	   1.4200 	  -9.8381 	   0.0000 	
C	   2.8400 	  -9.8381 	   0.0000 	
C	   3.5500 	  -8.6083 	   0.0000 	
C	   4.9700 	  -8.6083 	   0.0000 	
C	   5.6800 	  -7.3785 	   0.0000 	
C	   7.1000 	  -7.3785 	   0.0000 	
C	   7.8100 	  -6.1489 	   0.0000 	
C	   9.2300 	  -6.1489 	   0.0000 	
C	   9.9400 	  -4.9191 	   0.0000 	
C	  11.3600 	  -4.9191 	   0.0000 	
C	  12.0700 	  -3.6892 	   0.0000 	
C	  13.4900 	  -3.6892 	   0.0000 	
C	  14.2000 	  -2.4594 	   0.0000 	
C	  15.6200 	  -2.4594 	   0.0000 	
C	  16.3300 	  -1.2298 	   0.0000 	
C	  15.6200 	   0.0000 	   0.0000 	
C	  17.7500 	  -1.2298 	   0.0000 	
C	  18.4600 	   0.0000 	   0.0000 	
C	  17.7500 	   1.2298 	   0.0000 	
C	  16.3300 	   1.2298 	   0.0000 	
C	  15.6200 	   2.4594 	   0.0000 	
C	  14.2000 	   2.4594 	   0.0000 	
C	  13.4900 	   3.6892 	   0.0000 	
C	  12.0700 	   3.6892 	   0.0000 	
C	  11.3600 	   4.9191 	   0.0000 	
C	   9.9400 	   4.9191 	   0.0000 	
C	   9.2300 	   6.1489 	   0.0000 	
C	   7.8100 	   6.1489 	   0.0000 	
C	   7.1000 	   7.3785 	   0.0000 	
C	   5.6800 	   7.3785 	   0.0000 	
C	   4.9700 	   8.6083 	   0.0000 	
C	   3.5500 	   8.6083 	   0.0000 	
C	   2.8400 	   9.8381 	   0.0000 	
C	   1.4200 	   9.8381 	   0.0000 	
C	   0.7100 	  11.0677 	   0.0000 	
C	  -0.7100 	  11.0677 	   0.0000 	
C	  -1.4200 	  12.2975 	   0.0000 	
C	  -2.8400 	  12.2975 	   0.0000 	
C	  -0.7100 	 -13.5274 	   0.0000 	
C	   0.7100 	 -13.5274 	   0.0000 	
C	   1.4200 	 -12.2975 	   0.0000 	
C	   2.8400 	 -12.2975 	   0.0000 	
C	   3.5500 	 -11.0677 	   0.0000 	
C	   4.9700 	 -11.0677 	   0.0000 	
C	   5.6800 	  -9.8381 	   0.0000 	
C	   7.1000 	  -9.8381 	   0.0000 	
C	   7.8100 	  -8.6083 	   0.0000 	
C	   9.2300 	  -8.6083 	   0.0000 	
C	   9.9400 	  -7.3785 	   0.0000 	
C	  11.3600 	  -7.3785 	   0.0000 	
C	  12.0700 	  -6.1489 	   0.0000 	
C	  13.4900 	  -6.1489 	   0.0000 	
C	  14.2000 	  -4.9191 	   0.0000 	
C	  15.6200 	  -4.9191 	   0.0000 	
C	  16.3300 	  -3.6892 	   0.0000 	
C	  17.7500 	  -3.6892 	   0.0000 	
C	  18.4600 	  -2.4594 	   0.0000 	
C	  19.8800 	  -2.4594 	   0.0000 	
C	  20.5900 	  -1.2298 	   0.0000 	
C	  19.8800 	   0.0000 	   0.0000 	
C	  22.0100 	  -1.2298 	   0.0000 	
C	  22.7200 	   0.0000 	   0.0000 	
C	  22.0100 	   1.2298 	   0.0000 	
C	  20.5900 	   1.2298 	   0.0000 	
C	  19.8800 	   2.4594 	   0.0000 	
C	  18.4600 	   2.4594 	   0.0000 	
C	  17.7500 	   3.6892 	   0.0000 	
C	  16.3300 	   3.6892 	   0.0000 	
C	  15.6200 	   4.9191 	   0.0000 	
C	  14.2000 	   4.9191 	   0.0000 	
C	  13.4900 	   6.1489 	   0.0000 	
C	  12.0700 	   6.1489 	   0.0000 	
C	  11.3600 	   7.3785 	   0.0000 	
C	   9.9400 	   7.3785 	   0.0000 	
C	   9.2300 	   8.6083 	   0.0000 	
C	   7.8100 	   8.6083 	   0.0000 	
C	   7.1000 	   9.8381 	   0.0000 	
C	   5.6800 	   9.8381 	   0.0000 	
C	   4.9700 	  11.0677 	   0.0000 	
C	   3.5500 	  11.0677 	   0.0000 	
C	   2.8400 	  12.2975 	   0.0000 	
C	   1.4200 	  12.2975 	   0.0000 	
C	   0.7100 	  13.5274 	   0.0000 	
C	  -0.7100 	  13.5274 	   0.0000 	
C	  24.1400 	   0.0000 	   0.0000 	
