98

C	   0.7100 	   0.0000 	   0.0000 	
C	   1.4200 	  -1.2298 	   0.0000 	
C	   2.8400 	  -1.2298 	   0.0000 	
C	   3.5500 	   0.0000 	   0.0000 	
C	   2.8400 	   1.2298 	   0.0000 	
C	   1.4200 	   1.2298 	   0.0000 	
C	   4.9700 	   0.0000 	   0.0000 	
C	   5.6800 	   1.2298 	   0.0000 	
C	   4.9700 	   2.4594 	   0.0000 	
C	   3.5500 	   2.4594 	   0.0000 	
C	   3.5500 	  -2.4594 	   0.0000 	
C	   4.9700 	  -2.4594 	   0.0000 	
C	   5.6800 	  -1.2298 	   0.0000 	
C	   7.1000 	  -1.2298 	   0.0000 	
C	   7.8100 	   0.0000 	   0.0000 	
C	   7.1000 	   1.2298 	   0.0000 	
C	   7.8100 	   2.4594 	   0.0000 	
C	   7.1000 	   3.6892 	   0.0000 	
C	   5.6800 	   3.6892 	   0.0000 	
C	   9.2300 	   0.0000 	   0.0000 	
C	   9.9400 	   1.2298 	   0.0000 	
C	   9.2300 	   2.4594 	   0.0000 	
C	   7.8100 	  -2.4594 	   0.0000 	
C	   9.2300 	  -2.4594 	   0.0000 	
C	   9.9400 	  -1.2298 	   0.0000 	
C	   5.6800 	  -3.6892 	   0.0000 	
C	   7.1000 	  -3.6892 	   0.0000 	
C	  11.3600 	  -1.2298 	   0.0000 	
C	  12.0700 	   0.0000 	   0.0000 	
C	  11.3600 	   1.2298 	   0.0000 	
C	  13.4900 	   0.0000 	   0.0000 	
C	   4.9700 	   4.9191 	   0.0000 	
C	   3.5500 	   4.9191 	   0.0000 	
C	   2.8400 	   3.6892 	   0.0000 	
C	   1.4200 	   3.6892 	   0.0000 	
C	   0.7100 	   2.4594 	   0.0000 	
C	  -0.7100 	   2.4594 	   0.0000 	
C	  -1.4200 	   1.2298 	   0.0000 	
C	  -0.7100 	   0.0000 	   0.0000 	
C	   2.8400 	  -3.6892 	   0.0000 	
C	   3.5500 	  -4.9191 	   0.0000 	
C	   4.9700 	  -4.9191 	   0.0000 	
C	   0.7100 	  -2.4594 	   0.0000 	
C	   1.4200 	  -3.6892 	   0.0000 	
C	  -1.4200 	  -1.2298 	   0.0000 	
C	  -0.7100 	  -2.4594 	   0.0000 	
C	  -2.8400 	   1.2298 	   0.0000 	
C	  -3.5500 	   0.0000 	   0.0000 	
C	  -2.8400 	  -1.2298 	   0.0000 	
C	   2.8400 	   6.1489 	   0.0000 	
C	   1.4200 	   6.1489 	   0.0000 	
C	   0.7100 	   4.9191 	   0.0000 	
C	  -0.7100 	   4.9191 	   0.0000 	
C	  -1.4200 	   3.6892 	   0.0000 	
C	  -2.8400 	   3.6892 	   0.0000 	
C	  -3.5500 	   2.4594 	   0.0000 	
C	  -4.9700 	   2.4594 	   0.0000 	
C	  -5.6800 	   1.2298 	   0.0000 	
C	  -4.9700 	   0.0000 	   0.0000 	
C	  -5.6800 	  -1.2298 	   0.0000 	
C	  -4.9700 	  -2.4594 	   0.0000 	
C	  -3.5500 	  -2.4594 	   0.0000 	
C	  -2.8400 	  -3.6892 	   0.0000 	
C	  -1.4200 	  -3.6892 	   0.0000 	
C	  -0.7100 	  -4.9191 	   0.0000 	
C	   0.7100 	  -4.9191 	   0.0000 	
C	   1.4200 	  -6.1489 	   0.0000 	
C	   2.8400 	  -6.1489 	   0.0000 	
C	  -7.1000 	   1.2298 	   0.0000 	
C	  -7.8100 	   0.0000 	   0.0000 	
C	  -7.1000 	  -1.2298 	   0.0000 	
C	  -1.4200 	  -6.1489 	   0.0000 	
C	  -0.7100 	  -7.3785 	   0.0000 	
C	   0.7100 	  -7.3785 	   0.0000 	
C	  -3.5500 	  -4.9191 	   0.0000 	
C	  -2.8400 	  -6.1489 	   0.0000 	
C	  -5.6800 	  -3.6892 	   0.0000 	
C	  -4.9700 	  -4.9191 	   0.0000 	
C	  -7.8100 	  -2.4594 	   0.0000 	
C	  -7.1000 	  -3.6892 	   0.0000 	
C	  -9.2300 	   0.0000 	   0.0000 	
C	  -9.9400 	  -1.2298 	   0.0000 	
C	  -9.2300 	  -2.4594 	   0.0000 	
C	  -7.8100 	   2.4594 	   0.0000 	
C	  -9.2300 	   2.4594 	   0.0000 	
C	  -9.9400 	   1.2298 	   0.0000 	
C	  -5.6800 	   3.6892 	   0.0000 	
C	  -7.1000 	   3.6892 	   0.0000 	
C	  -3.5500 	   4.9191 	   0.0000 	
C	  -4.9700 	   4.9191 	   0.0000 	
C	  -1.4200 	   6.1489 	   0.0000 	
C	  -2.8400 	   6.1489 	   0.0000 	
C	   0.7100 	   7.3785 	   0.0000 	
C	  -0.7100 	   7.3785 	   0.0000 	
C	 -11.3600 	   1.2298 	   0.0000 	
C	 -12.0700 	   0.0000 	   0.0000 	
C	 -11.3600 	  -1.2298 	   0.0000 	
C	 -13.4900 	   0.0000 	   0.0000 	
