168

C     0.00000   0.71000   0.00000
C     0.00000   2.13000   0.00000
C     0.00000   4.97000   0.00000
C     0.00000   6.39000   0.00000
C     0.00000   9.23000   0.00000
C     0.00000  10.65000   0.00000
C     1.23000   0.00000   0.00000
C     1.23000   2.84000   0.00000
C     1.23000   4.26000   0.00000
C     1.23000   7.10000   0.00000
C     1.23000   8.52000   0.00000
C     1.23000  11.36000   0.00000
C     1.75000  12.68100   0.00000
C     3.17000  12.68100   0.00000
C     1.75000  15.14100   0.00000
C     3.17000  15.14100   0.00000
C     1.04000  13.91100   0.00000
C     3.88000  13.91100   0.00000
C     2.46000   0.71000   0.00000
C     2.46000   2.13000   0.00000
C     2.46000   4.97000   0.00000
C     2.46000   6.39000   0.00000
C     2.46000   9.23000   0.00000
C     2.46000  10.65000   0.00000
C     3.69000   0.00000   0.00000
C     3.69000   2.84000   0.00000
C     3.69000   4.26000   0.00000
C     3.69000   7.10000   0.00000
C     3.69000   8.52000   0.00000
C     3.69000  11.36000   0.00000
C     4.92000   0.71000   0.00000
C     4.92000   2.13000   0.00000
C     4.92000   4.97000   0.00000
C     4.92000   6.39000   0.00000
C     4.92000   9.23000   0.00000
C     4.92000  10.65000   0.00000
C     6.15000   0.00000   0.00000
C     6.15000   2.84000   0.00000
C     6.15000   4.26000   0.00000
C     6.15000   7.10000   0.00000
C     6.15000   8.52000   0.00000
C     6.15000  11.36000   0.00000
C     7.38000   0.71000   0.00000
C     7.38000   2.13000   0.00000
C     7.38000   4.97000   0.00000
C     7.38000   6.39000   0.00000
C     7.38000   9.23000   0.00000
C     7.38000  10.65000   0.00000
C     8.61000   0.00000   0.00000
C     8.61000   2.84000   0.00000
C     8.61000   4.26000   0.00000
C     8.61000   7.10000   0.00000
C     8.61000   8.52000   0.00000
C     8.61000  11.36000   0.00000
C     9.84000   0.71000   0.00000
C     9.84000   2.13000   0.00000
C     9.84000   4.97000   0.00000
C     9.84000   6.39000   0.00000
C     9.84000   9.23000   0.00000
C     9.84000  10.65000   0.00000
C    11.07000   0.00000   0.00000
C    11.07000   2.84000   0.00000
C    11.07000   4.26000   0.00000
C    11.07000   7.10000   0.00000
C    11.07000   8.52000   0.00000
C    11.07000  11.36000   0.00000
C    11.59000  -1.32140   0.00000
C    13.01000  -1.32140   0.00000
C    11.59000  -3.78140   0.00000
C    13.01000  -3.78140   0.00000
C    10.88000  -2.55140   0.00000
C    13.72000  -2.55140   0.00000
C    12.30000   0.71000   0.00000
C    12.30000   2.13000   0.00000
C    12.30000   4.97000   0.00000
C    12.30000   6.39000   0.00000
C    12.30000   9.23000   0.00000
C    12.30000  10.65000   0.00000
C    13.53000   0.00000   0.00000
C    13.53000   2.84000   0.00000
C    13.53000   4.26000   0.00000
C    13.53000   7.10000   0.00000
C    13.53000   8.52000   0.00000
C    13.53000  11.36000   0.00000
C    14.76000   0.71000   0.00000
C    14.76000   2.13000   0.00000
C    14.76000   4.97000   0.00000
C    14.76000   6.39000   0.00000
C    14.76000   9.23000   0.00000
C    14.76000  10.65000   0.00000
C    15.99000   0.00000   0.00000
C    15.99000   2.84000   0.00000
C    15.99000   4.26000   0.00000
C    15.99000   7.10000   0.00000
C    15.99000   8.52000   0.00000
C    15.99000  11.36000   0.00000
C    16.51000  12.68140   0.00000
C    17.93000  12.68140   0.00000
C    16.51000  15.14140   0.00000
C    17.93000  15.14140   0.00000
C    15.80000  13.91140   0.00000
C    18.64000  13.91140   0.00000
C    17.22000   0.71000   0.00000
C    17.22000   2.13000   0.00000
C    17.22000   4.97000   0.00000
C    17.22000   6.39000   0.00000
C    17.22000   9.23000   0.00000
C    17.22000  10.65000   0.00000
C    18.45000   0.00000   0.00000
C    18.45000   2.84000   0.00000
C    18.45000   4.26000   0.00000
C    18.45000   7.10000   0.00000
C    18.45000   8.52000   0.00000
C    18.45000  11.36000   0.00000
C    19.68000   0.71000   0.00000
C    19.68000   2.13000   0.00000
C    19.68000   4.97000   0.00000
C    19.68000   6.39000   0.00000
C    19.68000   9.23000   0.00000
C    19.68000  10.65000   0.00000
C    20.91000   0.00000   0.00000
C    20.91000   2.84000   0.00000
C    20.91000   4.26000   0.00000
C    20.91000   7.10000   0.00000
C    20.91000   8.52000   0.00000
C    20.91000  11.36000   0.00000
C    22.14000   0.71000   0.00000
C    22.14000   2.13000   0.00000
C    22.14000   4.97000   0.00000
C    22.14000   6.39000   0.00000
C    22.14000   9.23000   0.00000
C    22.14000  10.65000   0.00000
C    23.37000   0.00000   0.00000
C    23.37000   2.84000   0.00000
C    23.37000   4.26000   0.00000
C    23.37000   7.10000   0.00000
C    23.37000   8.52000   0.00000
C    23.37000  11.36000   0.00000
C    24.60000   0.71000   0.00000
C    24.60000   2.13000   0.00000
C    24.60000   4.97000   0.00000
C    24.60000   6.39000   0.00000
C    24.60000   9.23000   0.00000
C    24.60000  10.65000   0.00000
C    25.83000   0.00000   0.00000
C    25.83000   2.84000   0.00000
C    25.83000   4.26000   0.00000
C    25.83000   7.10000   0.00000
C    25.83000   8.52000   0.00000
C    25.83000  11.36000   0.00000
C    26.35000  -1.32140   0.00000
C    27.77000  -1.32140   0.00000
C    26.35000  -3.78140   0.00000
C    27.77000  -3.78140   0.00000
C    25.64000  -2.55140   0.00000
C    28.48000  -2.55140   0.00000
C    27.06000   0.71000   0.00000
C    27.06000   2.13000   0.00000
C    27.06000   4.97000   0.00000
C    27.06000   6.39000   0.00000
C    27.06000   9.23000   0.00000
C    27.06000  10.65000   0.00000
C    28.29000   0.00000   0.00000
C    28.29000   2.84000   0.00000
C    28.29000   4.26000   0.00000
C    28.29000   7.10000   0.00000
C    28.29000   8.52000   0.00000
C    28.29000  11.36000   0.00000
