64

C     0.00000   0.71000   0.00000
C     0.00000   2.13000   0.00000
C     0.00000   4.97000   0.00000
C     0.00000   6.39000   0.00000
C     0.00000   9.23000   0.00000
C     0.00000  10.65000   0.00000
C     0.00000  13.49000   0.00000
C     0.00000  14.91000   0.00000
C     1.23000   0.00000   0.00000
C     1.23000   2.84000   0.00000
C     1.23000   4.26000   0.00000
C     1.23000   7.10000   0.00000
C     1.23000   8.52000   0.00000
C     1.23000  11.36000   0.00000
C     1.23000  12.78000   0.00000
C     1.23000  15.62000   0.00000
C     2.46000   0.71000   0.00000
C     2.46000   2.13000   0.00000
C     2.46000   4.97000   0.00000
C     2.46000   6.39000   0.00000
C     2.46000   9.23000   0.00000
C     2.46000  10.65000   0.00000
C     2.46000  13.49000   0.00000
C     2.46000  14.91000   0.00000
C     3.69000   0.00000   0.00000
C     3.69000   2.84000   0.00000
C     3.69000   4.26000   0.00000
C     3.69000   7.10000   0.00000
C     3.69000   8.52000   0.00000
C     3.69000  11.36000   0.00000
C     3.69000  12.78000   0.00000
C     3.69000  15.62000   0.00000
C     4.92000   0.71000   0.00000
C     4.92000   2.13000   0.00000
C     4.92000   4.97000   0.00000
C     4.92000   6.39000   0.00000
C     4.92000   9.23000   0.00000
C     4.92000  10.65000   0.00000
C     4.92000  13.49000   0.00000
C     4.92000  14.91000   0.00000
C     6.15000   0.00000   0.00000
C     6.15000   2.84000   0.00000
C     6.15000   4.26000   0.00000
C     6.15000   7.10000   0.00000
C     6.15000   8.52000   0.00000
C     6.15000  11.36000   0.00000
C     6.15000  12.78000   0.00000
C     6.15000  15.62000   0.00000
C     7.38000   0.71000   0.00000
C     7.38000   2.13000   0.00000
C     7.38000   4.97000   0.00000
C     7.38000   6.39000   0.00000
C     7.38000   9.23000   0.00000
C     7.38000  10.65000   0.00000
C     7.38000  13.49000   0.00000
C     7.38000  14.91000   0.00000
C     8.61000   0.00000   0.00000
C     8.61000   2.84000   0.00000
C     8.61000   4.26000   0.00000
C     8.61000   7.10000   0.00000
C     8.61000   8.52000   0.00000
C     8.61000  11.36000   0.00000
C     8.61000  12.78000   0.00000
C     8.61000  15.62000   0.00000
