64

C     0.00000   0.71000   0.00000
C     0.00000   2.13000   0.00000
C     0.00000   4.97000   0.00000
C     0.00000   6.39000   0.00000
C     1.23000   0.00000   0.00000
C     1.23000   2.84000   0.00000
C     1.23000   4.26000   0.00000
C     1.23000   7.10000   0.00000
C     2.46000   0.71000   0.00000
C     2.46000   2.13000   0.00000
C     2.46000   4.97000   0.00000
C     2.46000   6.39000   0.00000
C     3.69000   0.00000   0.00000
C     3.69000   2.84000   0.00000
C     3.69000   4.26000   0.00000
C     3.69000   7.10000   0.00000
C     4.92000   0.71000   0.00000
C     4.92000   2.13000   0.00000
C     4.92000   4.97000   0.00000
C     4.92000   6.39000   0.00000
C     6.15000   0.00000   0.00000
C     6.15000   2.84000   0.00000
C     6.15000   4.26000   0.00000
C     6.15000   7.10000   0.00000
C     7.38000   0.71000   0.00000
C     7.38000   2.13000   0.00000
C     7.38000   4.97000   0.00000
C     7.38000   6.39000   0.00000
C     8.61000   0.00000   0.00000
C     8.61000   2.84000   0.00000
C     8.61000   4.26000   0.00000
C     8.61000   7.10000   0.00000
C     9.84000   0.71000   0.00000
C     9.84000   2.13000   0.00000
C     9.84000   4.97000   0.00000
C     9.84000   6.39000   0.00000
C    11.07000   0.00000   0.00000
C    11.07000   2.84000   0.00000
C    11.07000   4.26000   0.00000
C    11.07000   7.10000   0.00000
C    12.30000   0.71000   0.00000
C    12.30000   2.13000   0.00000
C    12.30000   4.97000   0.00000
C    12.30000   6.39000   0.00000
C    13.53000   0.00000   0.00000
C    13.53000   2.84000   0.00000
C    13.53000   4.26000   0.00000
C    13.53000   7.10000   0.00000
C    14.76000   0.71000   0.00000
C    14.76000   2.13000   0.00000
C    14.76000   4.97000   0.00000
C    14.76000   6.39000   0.00000
C    15.99000   0.00000   0.00000
C    15.99000   2.84000   0.00000
C    15.99000   4.26000   0.00000
C    15.99000   7.10000   0.00000
C    17.22000   0.71000   0.00000
C    17.22000   2.13000   0.00000
C    17.22000   4.97000   0.00000
C    17.22000   6.39000   0.00000
C    18.45000   0.00000   0.00000
C    18.45000   2.84000   0.00000
C    18.45000   4.26000   0.00000
C    18.45000   7.10000   0.00000
