320

C     0.00000   1.00409   0.00000
C     0.00000   2.42409   0.00000
C     0.00000   5.85227   0.00000
C     0.00000   7.27227   0.00000
C     0.00000  10.70046   0.00000
C     0.00000  12.12046   0.00000
C     0.00000  15.54864   0.00000
C     0.00000  16.96864   0.00000
C     0.00000  20.39682   0.00000
C     0.00000  21.81682   0.00000
C     0.00000  25.24501   0.00000
C     0.00000  26.66501   0.00000
C     0.00000  30.09319   0.00000
C     0.00000  31.51319   0.00000
C     0.00000  34.94137   0.00000
C     0.00000  36.36137   0.00000
C     0.00000  39.78956   0.00000
C     0.00000  41.20956   0.00000
C     0.00000  44.63774   0.00000
C     0.00000  46.05774   0.00000
C     1.00409   0.00000   0.00000
C     1.00409   3.42818   0.00000
C     1.00409   4.84818   0.00000
C     1.00409   8.27637   0.00000
C     1.00409   9.69637   0.00000
C     1.00409  13.12455   0.00000
C     1.00409  14.54455   0.00000
C     1.00409  17.97273   0.00000
C     1.00409  19.39273   0.00000
C     1.00409  22.82092   0.00000
C     1.00409  24.24092   0.00000
C     1.00409  27.66910   0.00000
C     1.00409  29.08910   0.00000
C     1.00409  32.51728   0.00000
C     1.00409  33.93728   0.00000
C     1.00409  37.36547   0.00000
C     1.00409  38.78547   0.00000
C     1.00409  42.21365   0.00000
C     1.00409  43.63365   0.00000
C     1.00409  47.06183   0.00000
C     2.00818   1.00409   0.00000
C     2.00818   2.42409   0.00000
C     2.00818   5.85227   0.00000
C     2.00818   7.27227   0.00000
C     2.00818  10.70046   0.00000
C     2.00818  12.12046   0.00000
C     2.00818  15.54864   0.00000
C     2.00818  16.96864   0.00000
C     2.00818  20.39682   0.00000
C     2.00818  21.81682   0.00000
C     2.00818  25.24501   0.00000
C     2.00818  26.66501   0.00000
C     2.00818  30.09319   0.00000
C     2.00818  31.51319   0.00000
C     2.00818  34.94137   0.00000
C     2.00818  36.36137   0.00000
C     2.00818  39.78956   0.00000
C     2.00818  41.20956   0.00000
C     2.00818  44.63774   0.00000
C     2.00818  46.05774   0.00000
C     3.01227   0.00000   0.00000
C     3.01227   3.42818   0.00000
C     3.01227   4.84818   0.00000
C     3.01227   8.27637   0.00000
C     3.01227   9.69637   0.00000
C     3.01227  13.12455   0.00000
C     3.01227  14.54455   0.00000
C     3.01227  17.97273   0.00000
C     3.01227  19.39273   0.00000
C     3.01227  22.82092   0.00000
C     3.01227  24.24092   0.00000
C     3.01227  27.66910   0.00000
C     3.01227  29.08910   0.00000
C     3.01227  32.51728   0.00000
C     3.01227  33.93728   0.00000
C     3.01227  37.36547   0.00000
C     3.01227  38.78547   0.00000
C     3.01227  42.21365   0.00000
C     3.01227  43.63365   0.00000
C     3.01227  47.06183   0.00000
C     4.01637   1.00409   0.00000
C     4.01637   2.42409   0.00000
C     4.01637   5.85227   0.00000
C     4.01637   7.27227   0.00000
C     4.01637  10.70046   0.00000
C     4.01637  12.12046   0.00000
C     4.01637  15.54864   0.00000
C     4.01637  16.96864   0.00000
C     4.01637  20.39682   0.00000
C     4.01637  21.81682   0.00000
C     4.01637  25.24501   0.00000
C     4.01637  26.66501   0.00000
C     4.01637  30.09319   0.00000
C     4.01637  31.51319   0.00000
C     4.01637  34.94137   0.00000
C     4.01637  36.36137   0.00000
C     4.01637  39.78956   0.00000
C     4.01637  41.20956   0.00000
C     4.01637  44.63774   0.00000
C     4.01637  46.05774   0.00000
C     5.02046   0.00000   0.00000
C     5.02046   3.42818   0.00000
C     5.02046   4.84818   0.00000
C     5.02046   8.27637   0.00000
C     5.02046   9.69637   0.00000
C     5.02046  13.12455   0.00000
C     5.02046  14.54455   0.00000
C     5.02046  17.97273   0.00000
C     5.02046  19.39273   0.00000
C     5.02046  22.82092   0.00000
C     5.02046  24.24092   0.00000
C     5.02046  27.66910   0.00000
C     5.02046  29.08910   0.00000
C     5.02046  32.51728   0.00000
C     5.02046  33.93728   0.00000
C     5.02046  37.36547   0.00000
C     5.02046  38.78547   0.00000
C     5.02046  42.21365   0.00000
C     5.02046  43.63365   0.00000
C     5.02046  47.06183   0.00000
C     6.02455   1.00409   0.00000
C     6.02455   2.42409   0.00000
C     6.02455   5.85227   0.00000
C     6.02455   7.27227   0.00000
C     6.02455  10.70046   0.00000
C     6.02455  12.12046   0.00000
C     6.02455  15.54864   0.00000
C     6.02455  16.96864   0.00000
C     6.02455  20.39682   0.00000
C     6.02455  21.81682   0.00000
C     6.02455  25.24501   0.00000
C     6.02455  26.66501   0.00000
C     6.02455  30.09319   0.00000
C     6.02455  31.51319   0.00000
C     6.02455  34.94137   0.00000
C     6.02455  36.36137   0.00000
C     6.02455  39.78956   0.00000
C     6.02455  41.20956   0.00000
C     6.02455  44.63774   0.00000
C     6.02455  46.05774   0.00000
C     7.02864   0.00000   0.00000
C     7.02864   3.42818   0.00000
C     7.02864   4.84818   0.00000
C     7.02864   8.27637   0.00000
C     7.02864   9.69637   0.00000
C     7.02864  13.12455   0.00000
C     7.02864  14.54455   0.00000
C     7.02864  17.97273   0.00000
C     7.02864  19.39273   0.00000
C     7.02864  22.82092   0.00000
C     7.02864  24.24092   0.00000
C     7.02864  27.66910   0.00000
C     7.02864  29.08910   0.00000
C     7.02864  32.51728   0.00000
C     7.02864  33.93728   0.00000
C     7.02864  37.36547   0.00000
C     7.02864  38.78547   0.00000
C     7.02864  42.21365   0.00000
C     7.02864  43.63365   0.00000
C     7.02864  47.06183   0.00000
C     8.03273   1.00409   0.00000
C     8.03273   2.42409   0.00000
C     8.03273   5.85227   0.00000
C     8.03273   7.27227   0.00000
C     8.03273  10.70046   0.00000
C     8.03273  12.12046   0.00000
C     8.03273  15.54864   0.00000
C     8.03273  16.96864   0.00000
C     8.03273  20.39682   0.00000
C     8.03273  21.81682   0.00000
C     8.03273  25.24501   0.00000
C     8.03273  26.66501   0.00000
C     8.03273  30.09319   0.00000
C     8.03273  31.51319   0.00000
C     8.03273  34.94137   0.00000
C     8.03273  36.36137   0.00000
C     8.03273  39.78956   0.00000
C     8.03273  41.20956   0.00000
C     8.03273  44.63774   0.00000
C     8.03273  46.05774   0.00000
C     9.03682   0.00000   0.00000
C     9.03682   3.42818   0.00000
C     9.03682   4.84818   0.00000
C     9.03682   8.27637   0.00000
C     9.03682   9.69637   0.00000
C     9.03682  13.12455   0.00000
C     9.03682  14.54455   0.00000
C     9.03682  17.97273   0.00000
C     9.03682  19.39273   0.00000
C     9.03682  22.82092   0.00000
C     9.03682  24.24092   0.00000
C     9.03682  27.66910   0.00000
C     9.03682  29.08910   0.00000
C     9.03682  32.51728   0.00000
C     9.03682  33.93728   0.00000
C     9.03682  37.36547   0.00000
C     9.03682  38.78547   0.00000
C     9.03682  42.21365   0.00000
C     9.03682  43.63365   0.00000
C     9.03682  47.06183   0.00000
C    10.04092   1.00409   0.00000
C    10.04092   2.42409   0.00000
C    10.04092   5.85227   0.00000
C    10.04092   7.27227   0.00000
C    10.04092  10.70046   0.00000
C    10.04092  12.12046   0.00000
C    10.04092  15.54864   0.00000
C    10.04092  16.96864   0.00000
C    10.04092  20.39682   0.00000
C    10.04092  21.81682   0.00000
C    10.04092  25.24501   0.00000
C    10.04092  26.66501   0.00000
C    10.04092  30.09319   0.00000
C    10.04092  31.51319   0.00000
C    10.04092  34.94137   0.00000
C    10.04092  36.36137   0.00000
C    10.04092  39.78956   0.00000
C    10.04092  41.20956   0.00000
C    10.04092  44.63774   0.00000
C    10.04092  46.05774   0.00000
C    11.04501   0.00000   0.00000
C    11.04501   3.42818   0.00000
C    11.04501   4.84818   0.00000
C    11.04501   8.27637   0.00000
C    11.04501   9.69637   0.00000
C    11.04501  13.12455   0.00000
C    11.04501  14.54455   0.00000
C    11.04501  17.97273   0.00000
C    11.04501  19.39273   0.00000
C    11.04501  22.82092   0.00000
C    11.04501  24.24092   0.00000
C    11.04501  27.66910   0.00000
C    11.04501  29.08910   0.00000
C    11.04501  32.51728   0.00000
C    11.04501  33.93728   0.00000
C    11.04501  37.36547   0.00000
C    11.04501  38.78547   0.00000
C    11.04501  42.21365   0.00000
C    11.04501  43.63365   0.00000
C    11.04501  47.06183   0.00000
C    12.04910   1.00409   0.00000
C    12.04910   2.42409   0.00000
C    12.04910   5.85227   0.00000
C    12.04910   7.27227   0.00000
C    12.04910  10.70046   0.00000
C    12.04910  12.12046   0.00000
C    12.04910  15.54864   0.00000
C    12.04910  16.96864   0.00000
C    12.04910  20.39682   0.00000
C    12.04910  21.81682   0.00000
C    12.04910  25.24501   0.00000
C    12.04910  26.66501   0.00000
C    12.04910  30.09319   0.00000
C    12.04910  31.51319   0.00000
C    12.04910  34.94137   0.00000
C    12.04910  36.36137   0.00000
C    12.04910  39.78956   0.00000
C    12.04910  41.20956   0.00000
C    12.04910  44.63774   0.00000
C    12.04910  46.05774   0.00000
C    13.05319   0.00000   0.00000
C    13.05319   3.42818   0.00000
C    13.05319   4.84818   0.00000
C    13.05319   8.27637   0.00000
C    13.05319   9.69637   0.00000
C    13.05319  13.12455   0.00000
C    13.05319  14.54455   0.00000
C    13.05319  17.97273   0.00000
C    13.05319  19.39273   0.00000
C    13.05319  22.82092   0.00000
C    13.05319  24.24092   0.00000
C    13.05319  27.66910   0.00000
C    13.05319  29.08910   0.00000
C    13.05319  32.51728   0.00000
C    13.05319  33.93728   0.00000
C    13.05319  37.36547   0.00000
C    13.05319  38.78547   0.00000
C    13.05319  42.21365   0.00000
C    13.05319  43.63365   0.00000
C    13.05319  47.06183   0.00000
C    14.05728   1.00409   0.00000
C    14.05728   2.42409   0.00000
C    14.05728   5.85227   0.00000
C    14.05728   7.27227   0.00000
C    14.05728  10.70046   0.00000
C    14.05728  12.12046   0.00000
C    14.05728  15.54864   0.00000
C    14.05728  16.96864   0.00000
C    14.05728  20.39682   0.00000
C    14.05728  21.81682   0.00000
C    14.05728  25.24501   0.00000
C    14.05728  26.66501   0.00000
C    14.05728  30.09319   0.00000
C    14.05728  31.51319   0.00000
C    14.05728  34.94137   0.00000
C    14.05728  36.36137   0.00000
C    14.05728  39.78956   0.00000
C    14.05728  41.20956   0.00000
C    14.05728  44.63774   0.00000
C    14.05728  46.05774   0.00000
C    15.06137   0.00000   0.00000
C    15.06137   3.42818   0.00000
C    15.06137   4.84818   0.00000
C    15.06137   8.27637   0.00000
C    15.06137   9.69637   0.00000
C    15.06137  13.12455   0.00000
C    15.06137  14.54455   0.00000
C    15.06137  17.97273   0.00000
C    15.06137  19.39273   0.00000
C    15.06137  22.82092   0.00000
C    15.06137  24.24092   0.00000
C    15.06137  27.66910   0.00000
C    15.06137  29.08910   0.00000
C    15.06137  32.51728   0.00000
C    15.06137  33.93728   0.00000
C    15.06137  37.36547   0.00000
C    15.06137  38.78547   0.00000
C    15.06137  42.21365   0.00000
C    15.06137  43.63365   0.00000
C    15.06137  47.06183   0.00000
