140

C     0.00000   1.23000   0.00000
C     0.00000   3.69000   0.00000
C     0.00000   6.15000   0.00000
C     0.71000   0.00000   0.00000
C     2.13000   0.00000   0.00000
C     0.71000   2.46000   0.00000
C     2.13000   2.46000   0.00000
C     0.71000   4.92000   0.00000
C     2.13000   4.92000   0.00000
C     0.71000   7.38000   0.00000
C     2.13000   7.38000   0.00000
C     2.84000   1.23000   0.00000
C     2.84000   3.69000   0.00000
C     2.84000   6.15000   0.00000
C     4.26000   1.23000   0.00000
C     4.26000   3.69000   0.00000
C     4.26000   6.15000   0.00000
C     4.97000   0.00000   0.00000
C     6.39000   0.00000   0.00000
C     4.97000   2.46000   0.00000
C     6.39000   2.46000   0.00000
C     4.97000   4.92000   0.00000
C     6.39000   4.92000   0.00000
C     4.97000   7.38000   0.00000
C     6.39000   7.38000   0.00000
C     7.10000   1.23000   0.00000
C     7.10000   3.69000   0.00000
C     7.10000   6.15000   0.00000
C     8.52000   1.23000   0.00000
C     8.52000   3.69000   0.00000
C     8.52000   6.15000   0.00000
C     9.23000   0.00000   0.00000
C    10.65000   0.00000   0.00000
C     9.23000   2.46000   0.00000
C    10.65000   2.46000   0.00000
C     9.23000   4.92000   0.00000
C    10.65000   4.92000   0.00000
C     9.23000   7.38000   0.00000
C    10.65000   7.38000   0.00000
C    11.36000   1.23000   0.00000
C    11.36000   3.69000   0.00000
C    11.36000   6.15000   0.00000
C    12.78000   1.23000   0.00000
C    12.78000   3.69000   0.00000
C    12.78000   6.15000   0.00000
C    13.49000   0.00000   0.00000
C    14.91000   0.00000   0.00000
C    13.49000   2.46000   0.00000
C    14.91000   2.46000   0.00000
C    13.49000   4.92000   0.00000
C    14.91000   4.92000   0.00000
C    13.49000   7.38000   0.00000
C    14.91000   7.38000   0.00000
C    15.62000   1.23000   0.00000
C    15.62000   3.69000   0.00000
C    15.62000   6.15000   0.00000
C    17.04000   1.23000   0.00000
C    17.04000   3.69000   0.00000
C    17.04000   6.15000   0.00000
C    17.75000   0.00000   0.00000
C    19.17000   0.00000   0.00000
C    17.75000   2.46000   0.00000
C    19.17000   2.46000   0.00000
C    17.75000   4.92000   0.00000
C    19.17000   4.92000   0.00000
C    17.75000   7.38000   0.00000
C    19.17000   7.38000   0.00000
C    19.88000   1.23000   0.00000
C    19.88000   3.69000   0.00000
C    19.88000   6.15000   0.00000
C    21.30000   1.23000   0.00000
C    21.30000   3.69000   0.00000
C    21.30000   6.15000   0.00000
C    22.01000   0.00000   0.00000
C    23.43000   0.00000   0.00000
C    22.01000   2.46000   0.00000
C    23.43000   2.46000   0.00000
C    22.01000   4.92000   0.00000
C    23.43000   4.92000   0.00000
C    22.01000   7.38000   0.00000
C    23.43000   7.38000   0.00000
C    24.14000   1.23000   0.00000
C    24.14000   3.69000   0.00000
C    24.14000   6.15000   0.00000
C    25.56000   1.23000   0.00000
C    25.56000   3.69000   0.00000
C    25.56000   6.15000   0.00000
C    26.27000   0.00000   0.00000
C    27.69000   0.00000   0.00000
C    26.27000   2.46000   0.00000
C    27.69000   2.46000   0.00000
C    26.27000   4.92000   0.00000
C    27.69000   4.92000   0.00000
C    26.27000   7.38000   0.00000
C    27.69000   7.38000   0.00000
C    28.40000   1.23000   0.00000
C    28.40000   3.69000   0.00000
C    28.40000   6.15000   0.00000
C    29.82000   1.23000   0.00000
C    29.82000   3.69000   0.00000
C    29.82000   6.15000   0.00000
C    30.53000   0.00000   0.00000
C    31.95000   0.00000   0.00000
C    30.53000   2.46000   0.00000
C    31.95000   2.46000   0.00000
C    30.53000   4.92000   0.00000
C    31.95000   4.92000   0.00000
C    30.53000   7.38000   0.00000
C    31.95000   7.38000   0.00000
C    32.66000   1.23000   0.00000
C    32.66000   3.69000   0.00000
C    32.66000   6.15000   0.00000
C    34.08000   1.23000   0.00000
C    34.08000   3.69000   0.00000
C    34.08000   6.15000   0.00000
C    34.79000   0.00000   0.00000
C    36.21000   0.00000   0.00000
C    34.79000   2.46000   0.00000
C    36.21000   2.46000   0.00000
C    34.79000   4.92000   0.00000
C    36.21000   4.92000   0.00000
C    34.79000   7.38000   0.00000
C    36.21000   7.38000   0.00000
C    36.92000   1.23000   0.00000
C    36.92000   3.69000   0.00000
C    36.92000   6.15000   0.00000
C    38.34000   1.23000   0.00000
C    38.34000   3.69000   0.00000
C    38.34000   6.15000   0.00000
C    39.05000   0.00000   0.00000
C    40.47000   0.00000   0.00000
C    39.05000   2.46000   0.00000
C    40.47000   2.46000   0.00000
C    39.05000   4.92000   0.00000
C    40.47000   4.92000   0.00000
C    39.05000   7.38000   0.00000
C    40.47000   7.38000   0.00000
C    41.18000   1.23000   0.00000
C    41.18000   3.69000   0.00000
C    41.18000   6.15000   0.00000
