110

C     0.00000   1.23000   0.00000
C     2.84000   1.23000   0.00000
C     0.00000   3.69000   0.00000
C     2.84000   3.69000   0.00000
C     0.00000   6.15000   0.00000
C     2.84000   6.15000   0.00000
C     0.00000   8.61000   0.00000
C     2.84000   8.61000   0.00000
C     0.00000  11.07000   0.00000
C     0.71000   0.00000   0.00000
C     2.13000   0.00000   0.00000
C     0.71000   2.46000   0.00000
C     2.13000   2.46000   0.00000
C     0.71000   4.92000   0.00000
C     2.13000   4.92000   0.00000
C     0.71000   7.38000   0.00000
C     2.13000   7.38000   0.00000
C     0.71000   9.84000   0.00000
C     2.13000   9.84000   0.00000
C     0.71000  12.30000   0.00000
C     2.13000  12.30000   0.00000
C     2.84000  11.07000   0.00000
C     4.26000   1.23000   0.00000
C     7.10000   1.23000   0.00000
C     4.26000   3.69000   0.00000
C     7.10000   3.69000   0.00000
C     4.26000   6.15000   0.00000
C     7.10000   6.15000   0.00000
C     4.26000   8.61000   0.00000
C     7.10000   8.61000   0.00000
C     4.26000  11.07000   0.00000
C     4.97000   0.00000   0.00000
C     6.39000   0.00000   0.00000
C     4.97000   2.46000   0.00000
C     6.39000   2.46000   0.00000
C     4.97000   4.92000   0.00000
C     6.39000   4.92000   0.00000
C     4.97000   7.38000   0.00000
C     6.39000   7.38000   0.00000
C     4.97000   9.84000   0.00000
C     6.39000   9.84000   0.00000
C     4.97000  12.30000   0.00000
C     6.39000  12.30000   0.00000
C     7.10000  11.07000   0.00000
C     8.52000   1.23000   0.00000
C    11.36000   1.23000   0.00000
C     8.52000   3.69000   0.00000
C    11.36000   3.69000   0.00000
C     8.52000   6.15000   0.00000
C    11.36000   6.15000   0.00000
C     8.52000   8.61000   0.00000
C    11.36000   8.61000   0.00000
C     8.52000  11.07000   0.00000
C     9.23000   0.00000   0.00000
C    10.65000   0.00000   0.00000
C     9.23000   2.46000   0.00000
C    10.65000   2.46000   0.00000
C     9.23000   4.92000   0.00000
C    10.65000   4.92000   0.00000
C     9.23000   7.38000   0.00000
C    10.65000   7.38000   0.00000
C     9.23000   9.84000   0.00000
C    10.65000   9.84000   0.00000
C     9.23000  12.30000   0.00000
C    10.65000  12.30000   0.00000
C    11.36000  11.07000   0.00000
C    12.78000   1.23000   0.00000
C    15.62000   1.23000   0.00000
C    12.78000   3.69000   0.00000
C    15.62000   3.69000   0.00000
C    12.78000   6.15000   0.00000
C    15.62000   6.15000   0.00000
C    12.78000   8.61000   0.00000
C    15.62000   8.61000   0.00000
C    12.78000  11.07000   0.00000
C    13.49000   0.00000   0.00000
C    14.91000   0.00000   0.00000
C    13.49000   2.46000   0.00000
C    14.91000   2.46000   0.00000
C    13.49000   4.92000   0.00000
C    14.91000   4.92000   0.00000
C    13.49000   7.38000   0.00000
C    14.91000   7.38000   0.00000
C    13.49000   9.84000   0.00000
C    14.91000   9.84000   0.00000
C    13.49000  12.30000   0.00000
C    14.91000  12.30000   0.00000
C    15.62000  11.07000   0.00000
C    17.04000   1.23000   0.00000
C    19.88000   1.23000   0.00000
C    17.04000   3.69000   0.00000
C    19.88000   3.69000   0.00000
C    17.04000   6.15000   0.00000
C    19.88000   6.15000   0.00000
C    17.04000   8.61000   0.00000
C    19.88000   8.61000   0.00000
C    17.04000  11.07000   0.00000
C    17.75000   0.00000   0.00000
C    19.17000   0.00000   0.00000
C    17.75000   2.46000   0.00000
C    19.17000   2.46000   0.00000
C    17.75000   4.92000   0.00000
C    19.17000   4.92000   0.00000
C    17.75000   7.38000   0.00000
C    19.17000   7.38000   0.00000
C    17.75000   9.84000   0.00000
C    19.17000   9.84000   0.00000
C    17.75000  12.30000   0.00000
C    19.17000  12.30000   0.00000
C    19.88000  11.07000   0.00000
